/*--------------------------------*- C++ -*----------------------------------*\
  =========                 |
  \\      /  F ield         | OpenFOAM: The Open Source CFD Toolbox
   \\    /   O peration     | Website:  https://openfoam.org
    \\  /    A nd           | Version:  6
     \\/     M anipulation  |
\*---------------------------------------------------------------------------*/
FoamFile
{
    version     2.0;
    format      ascii;
    class       polyBoundaryMesh;
    location    "constant/polyMesh";
    object      boundary;
}
// * * * * * * * * * * * * * * * * * * * * * * * * * * * * * * * * * * * * * //

8
(
    inletWater
    {
        type            patch;
        nFaces          37;
        startFace       106651;
    }
    inletAir
    {
        type            patch;
        nFaces          12;
        startFace       106688;
    }
    outletWater
    {
        type            patch;
        nFaces          37;
        startFace       106700;
    }
    outletAir
    {
        type            patch;
        nFaces          12;
        startFace       106737;
    }
    lowerWall
    {
        type            wall;
        inGroups        1(wall);
        nFaces          1100;
        startFace       106749;
    }
    atmosphere
    {
        type            patch;
        nFaces          1100;
        startFace       107849;
    }
    front
    {
        type            empty;
        inGroups        1(empty);
        nFaces          53900;
        startFace       108949;
    }
    back
    {
        type            empty;
        inGroups        1(empty);
        nFaces          53900;
        startFace       162849;
    }
)

// ************************************************************************* //
