/*--------------------------------*- C++ -*----------------------------------*\
| =========                 |                                                 |
| \\      /  F ield         | OpenFOAM: The Open Source CFD Toolbox           |
|  \\    /   O peration     | Version:  4.1                                   |
|   \\  /    A nd           | Web:      www.OpenFOAM.org                      |
|    \\/     M anipulation  |                                                 |
\*---------------------------------------------------------------------------*/
FoamFile
{
    version     2.0;
    format      ascii;
    class       dictionary;
    object      blockMeshDict;
}
// * * * * * * * * * * * * * * * * * * * * * * * * * * * * * * * * * * * * * //

convertToMeters 1;
x 2.2; //length of domain//
y 0.015; //free surface level//
y1 0.025; //total height of atmosphere from bottom//
y2 0.005; //inflation layer thickness/
z 0.01;



vertices
(
	(0 0 0)
	($x 0 0)
	($x $y2 0)
	($x $y 0)
	($x $y1 0)
	(0 $y1 0)
	(0 $y 0)
	(0 $y2 0)
	(0 0 $z)
	($x 0 $z)
	($x $y2 $z)
	($x $y $z)
	($x $y1 $z)
	(0 $y1 $z)
	(0 $y $z)
	(0 $y2 $z)   
);

blocks
(
    hex (0 1 2 7 8 9 10 15) (1100 25 1) simpleGrading (1 80 1)
    hex (7 2 3 6 15 10 11 14) (1100 12 1) simpleGrading (1 1 1)
    hex (6 3 4 5 14 11 12 13) (1100 12 1) simpleGrading (1 1 1)
);

edges
(
);

patches
(
    patch inletWater
    (
        (0 8 15 7)
	(7 15 14 6)
    )
    patch inletAir
    (
	(6 14 13 5)
    )
    

    patch outletWater
    (
        (9 1 2 10)
	(10 2 3 11)
    )

    patch outletAir
    (
	(11 3 4 12)
    )

    wall lowerWall
    (
        (0 1 9 8)
    )
    patch atmosphere
    (
        (13 12 4 5)
    )
    
    empty front
    (
	(8 9 10 15)
	(15 10 11 14)
	(14 11 12 13)
    )
    empty back
    (
	(0 7 2 1)
	(7 6 3 2)
	(6 5 4 3)
    )
);

mergePatchPairs
(
);

// ************************************************************************* //
