/*--------------------------------*- C++ -*----------------------------------*\
| =========                 |                                                 |
| \\      /  F ield         | OpenFOAM: The Open Source CFD Toolbox           |
|  \\    /   O peration     | Version:  4.1                                   |
|   \\  /    A nd           | Web:      www.OpenFOAM.org                      |
|    \\/     M anipulation  |                                                 |
\*---------------------------------------------------------------------------*/
FoamFile
{
    version     2.0;
    format      ascii;
    class       volScalarField;
    object      p_rgh;
}
// * * * * * * * * * * * * * * * * * * * * * * * * * * * * * * * * * * * * * //

#include        "include/initialConditions"

dimensions      [1 -1 -2 0 0 0 0];

internalField   uniform $pressure;

boundaryField
{
    inletWater
    {
        type            zeroGradient;
    }

    outletWater
    {
        type            zeroGradient;
    }
    inletAir
    {
        type            zeroGradient;
    }

    outletAir
    {
        type            zeroGradient;
    }

    lowerWall
    {
        type            fixedFluxPressure;
    }

    atmosphere
    {
        type            totalPressure;
        p0              uniform 0;
    }

    back
    {
        type            empty;
    }


    front
    {
        type            empty;
    }
}

// ************************************************************************* //
